Version 4
SHEET 1 880 680
WIRE 16 16 -336 16
WIRE 208 16 144 16
WIRE 336 16 272 16
WIRE 336 80 336 16
WIRE 432 80 336 80
WIRE 16 112 -192 112
WIRE 208 112 144 112
WIRE 208 128 208 112
WIRE 16 208 -48 208
WIRE 208 208 144 208
WIRE 336 208 336 80
WIRE 336 208 272 208
WIRE -336 288 -336 16
WIRE -48 288 -48 208
WIRE -384 304 -480 304
WIRE -336 304 -336 288
WIRE -96 304 -176 304
WIRE -48 304 -48 288
WIRE -384 368 -384 304
WIRE -96 368 -96 304
WIRE -336 384 -480 384
WIRE -48 384 -176 384
FLAG -336 384 0
FLAG -48 384 0
FLAG -192 192 0
FLAG -176 384 0
FLAG -480 384 0
FLAG 208 128 0
FLAG 336 272 0
FLAG 432 160 0
SYMBOL WE-PPTI_1308 16 16 R0
SYMATTR SpiceModel 750319691
SYMATTR InstName T3
SYMBOL voltage -192 96 R0
SYMATTR InstName V1
SYMATTR Value 12
SYMBOL voltage -480 288 R0
WINDOW 3 -241 133 Left 2
WINDOW 123 0 0 Left 0
WINDOW 39 0 0 Left 0
SYMATTR Value PULSE(0 10 325e-9 100n 100n 125e-9 650e-9)
SYMATTR InstName V2
SYMBOL voltage -176 288 R0
WINDOW 3 -38 133 Left 2
WINDOW 123 0 0 Left 0
WINDOW 39 0 0 Left 0
SYMATTR Value PULSE(0 10 0 100n 100n 125e-9 650e-9)
SYMATTR InstName V3
SYMBOL nmos -384 288 R0
SYMATTR InstName M1
SYMATTR Value BSC059N04LS6
SYMBOL nmos -96 288 R0
SYMATTR InstName M2
SYMATTR Value BSC059N04LS6
SYMBOL schottky 208 32 R270
WINDOW 0 32 32 VTop 2
WINDOW 3 0 32 VBottom 2
SYMATTR InstName D1
SYMATTR Value 1N5818
SYMATTR Description Diode
SYMATTR Type diode
SYMBOL schottky 208 224 R270
WINDOW 0 32 32 VTop 2
WINDOW 3 0 32 VBottom 2
SYMATTR InstName D2
SYMATTR Value 1N5818
SYMATTR Description Diode
SYMATTR Type diode
SYMBOL cap 320 208 R0
SYMATTR InstName C1
SYMATTR Value 10µ
SYMBOL res 416 64 R0
SYMATTR InstName R1
SYMATTR Value 150
TEXT -720 448 Left 2 !.tran 0 300u 0
